    37
        -74.84786596
C           1.26029913837572   -1.58497957022588    0.00000046375416
C          -1.26029955778926    1.58497939953800    0.00000042414652
C          -0.31328461168880   -2.00049329201355    0.00000048992288
C           0.31328418061632    2.00049325666803    0.00000045213210
N          -0.80065826046623   -1.48662595350684   -1.26630119690487
N           0.80065777859118    1.48662513126774    1.26630177597480
N          -0.80065807510025   -1.48662527806752    1.26630193201180
N           0.80065775238733    1.48662574867820   -1.26630114824738
N           1.43058182475266   -0.89755324838541   -1.26632688254842
N          -1.43058193908858    0.89755278292189    1.26632774664626
N           1.43058136142170   -0.89755285354889    1.26632770403883
N          -1.43058219157833    0.89755322271104   -1.26632703222299
C           0.33542540531905   -1.26988048276095   -2.08465423214035
C          -0.33542553088906    1.26987975784078    2.08465513810339
C           0.33542517939701   -1.26987985381591    2.08465510938335
C          -0.33542575873728    1.26988039293577   -2.08465420975975
O           0.35078866395213   -1.32796728076054   -3.27273129614639
O          -0.35078877931217    1.32796663335676    3.27273222922329
O           0.35078851380671   -1.32796670435379    3.27273212818465
O          -0.35078892745032    1.32796720449497   -3.27273121841522
C          -1.84740740958993   -0.48794704824710   -1.51935236533899
C           1.84740713475980    0.48794701567470    1.51935376297119
C          -1.84740750484082   -0.48794716022023    1.51935392793425
C           1.84740702713173    0.48794697242883   -1.51935219601599
H          -0.41904685929660   -3.09110838131491    0.00000079823246
H           0.41904639631773    3.09110842693116    0.00000080829862
H           1.89065210862896   -2.48124577048430    0.00000078159898
H          -1.89065247704640    2.48124549793125    0.00000079217347
H          -2.76091177084128   -0.72924960912385   -0.98376676582384
H           2.76091220615411    0.72924969476370    0.98376921571724
H          -2.76091256787372   -0.72924976714718    0.98376956803991
H           2.76091141564937    0.72924950425878   -0.98376641531512
H          -2.03688435777727   -0.53794866254488   -2.59612827443932
H           2.03688291967136    0.53794826389586    2.59613002041356
H          -2.03688316947425   -0.53794832187896    2.59613014909086
H           2.03688410990456    0.53794859665473   -2.59612814888343
HE          0.00000663200313    0.00000173544853   -0.00002403579050
