37
/Users/alanarnold/Documents/Firefly projects/Q2/He@Q2_opt_DFT-D4_def2TZVP_C2h_1.out	Energy:   -1205.8642475
C          1.27379       -1.59247        0.00000
C         -1.27379        1.59247        0.00000
C         -0.32051       -2.01211        0.00000
C          0.32051        2.01211        0.00000
N         -0.81254       -1.53248       -1.28738
N          0.81254        1.53248        1.28738
N         -0.81254       -1.53248        1.28738
N          0.81254        1.53248       -1.28738
N          1.46726       -0.93378       -1.28857
N         -1.46726        0.93378        1.28857
N          1.46726       -0.93378        1.28857
N         -1.46726        0.93378       -1.28857
C          0.34841       -1.31633       -2.11350
C         -0.34841        1.31633        2.11350
C          0.34841       -1.31633        2.11350
C         -0.34841        1.31633       -2.11350
O          0.36647       -1.38700       -3.31174
O         -0.36647        1.38700        3.31174
O          0.36647       -1.38700        3.31174
O         -0.36647        1.38700       -3.31174
C         -1.84157       -0.48586       -1.53214
C          1.84157        0.48586        1.53214
C         -1.84157       -0.48586        1.53214
C          1.84157        0.48586       -1.53214
H         -0.39905       -3.10243        0.00000
H          0.39905        3.10243        0.00000
H          1.87853       -2.50308        0.00000
H         -1.87853        2.50308        0.00000
H         -2.74683       -0.72604       -0.98170
H          2.74683        0.72604        0.98170
H         -2.74683       -0.72604        0.98170
H          2.74683        0.72604       -0.98170
H         -2.05623       -0.54319       -2.59994
H          2.05623        0.54319        2.59994
H         -2.05623       -0.54319        2.59994
H          2.05623        0.54319       -2.59994
He         0.00000        0.00000        0.00000
