38
/Users/alanarnold/Documents/Firefly projects/Q2/Q2.H(1,1)2+ _opt_DFT-D4_def2TZVP_C1_1.out	Energy:   -1203.5819810
C          1.22732       -1.57884       -0.06266
C         -1.24523        1.50891        0.04649
C         -0.34415       -2.03322       -0.08576
C          0.32599        1.96304        0.06940
N         -0.82568       -1.53913       -1.39595
N          0.80825        1.46803        1.37953
N         -0.85398       -1.59007        1.19917
N          0.83507        1.52058       -1.21590
N          1.39108       -0.87506       -1.33658
N         -1.40876        0.80592        1.32053
N          1.38876       -0.93997        1.21752
N         -1.40682        0.86858       -1.23328
C          0.33053       -1.25076       -2.09935
C         -0.34758        1.17975        2.08301
C          0.29439       -1.35414        2.03926
C         -0.31301        1.28244       -2.05546
O          0.46765       -1.31316       -3.38099
O         -0.48461        1.23868        3.36483
O          0.28844       -1.34891        3.23414
O         -0.30644        1.27466       -3.25041
C         -1.88677       -0.45941       -1.57348
C          1.86936        0.38781        1.55647
C         -1.89569       -0.62608        1.51866
C          1.87737        0.55750       -1.53504
H         -0.41295       -3.12162       -0.12722
H          0.39502        3.05129        0.11201
H          1.86718       -2.46370       -0.10615
H         -1.88541        2.39361        0.08941
H         -2.76747       -0.74775       -1.00948
H          2.74843        0.67475        0.98941
H         -2.80290       -0.77218        0.94254
H          2.78393        0.70490       -0.95818
H         -2.15826       -0.45086       -2.63016
H          2.14385        0.38076        2.61240
H         -2.13437       -0.72607        2.57782
H          2.11597        0.65740       -2.59422
H          0.33973        1.43394        3.85126
H         -0.35641       -1.51196       -3.86668
